
     RDKit          3D

  8  7  0  0  0  0  0  0  0  0999 V2000
    0.7532   -0.0570    0.0328 C   0  0  0  0  0  0  0  0  0  0  0  0
   -0.7532    0.0570   -0.0328 C   0  0  0  0  0  0  0  0  0  0  0  0
    1.2241    0.8683   -0.3121 H   0  0  0  0  0  0  0  0  0  0  0  0
    1.1043   -0.8785   -0.5988 H   0  0  0  0  0  0  0  0  0  0  0  0
    1.0798   -0.2479    1.0594 H   0  0  0  0  0  0  0  0  0  0  0  0
   -1.2241   -0.8683    0.3121 H   0  0  0  0  0  0  0  0  0  0  0  0
   -1.0798    0.2479   -1.0594 H   0  0  0  0  0  0  0  0  0  0  0  0
   -1.1043    0.8785    0.5988 H   0  0  0  0  0  0  0  0  0  0  0  0
  1  2  1  0
  1  3  1  0
  1  4  1  0
  1  5  1  0
  2  6  1  0
  2  7  1  0
  2  8  1  0
M  END
$$$$
