
     RDKit          3D

 53 56  0  0  0  0  0  0  0  0999 V2000
    6.1419    2.4313   -2.0357 O   0  0  0  0  0  0  0  0  0  0  0  0
    5.6133    1.1776   -2.4714 C   0  0  0  0  0  0  0  0  0  0  0  0
    5.0384    0.4076   -1.2702 C   0  0  0  0  0  0  0  0  0  0  0  0
    4.1409    1.2485   -0.4492 N   0  0  0  0  0  0  0  0  0  0  0  0
    3.9611    0.6401    0.8859 C   0  0  0  0  0  0  0  0  0  0  0  0
    2.6396    1.0478    1.5703 C   0  0  0  0  0  0  0  0  0  0  0  0
    1.4293    0.6272    0.8317 N   0  0  0  0  0  0  0  0  0  0  0  0
    0.9032   -0.6542    1.3228 C   0  0  0  0  0  0  0  0  0  0  0  0
   -0.4922   -0.9827    0.7774 C   0  0  0  0  0  0  0  0  0  0  0  0
   -1.5613   -0.0174    1.3143 C   0  0  0  0  0  0  0  0  0  0  0  0
   -2.8779   -0.2224    0.6470 N   0  0  0  0  0  0  0  0  0  0  0  0
   -3.4611   -1.4966    0.8917 C   0  0  0  0  0  0  0  0  0  0  0  0
   -3.6181   -1.9596    2.2170 C   0  0  0  0  0  0  0  0  0  0  0  0
   -4.1808   -3.2083    2.4926 C   0  0  0  0  0  0  0  0  0  0  0  0
   -4.6088   -4.0214    1.4511 C   0  0  0  0  0  0  0  0  0  0  0  0
   -4.4801   -3.5797    0.1325 C   0  0  0  0  0  0  0  0  0  0  0  0
   -3.9254   -2.3205   -0.1522 C   0  0  0  0  0  0  0  0  0  0  0  0
   -3.7968   -1.8671   -1.8725 S   0  0  0  0  0  0  0  0  0  0  0  0
   -3.4516   -0.1241   -1.7639 C   0  0  0  0  0  0  0  0  0  0  0  0
   -3.5919    0.6240   -2.9520 C   0  0  0  0  0  0  0  0  0  0  0  0
   -3.3359    1.9937   -2.9619 C   0  0  0  0  0  0  0  0  0  0  0  0
   -2.9484    2.6218   -1.7837 C   0  0  0  0  0  0  0  0  0  0  0  0
   -2.6490    4.3181   -1.7774 Cl  0  0  0  0  0  0  0  0  0  0  0  0
   -2.8039    1.8891   -0.6005 C   0  0  0  0  0  0  0  0  0  0  0  0
   -3.0251    0.4974   -0.5723 C   0  0  0  0  0  0  0  0  0  0  0  0
    1.6923    0.5773   -0.6259 C   0  0  0  0  0  0  0  0  0  0  0  0
    2.8324    1.5086   -1.0918 C   0  0  0  0  0  0  0  0  0  0  0  0
    5.5379    2.7213   -1.3235 H   0  0  0  0  0  0  0  0  0  0  0  0
    6.4231    0.6054   -2.9364 H   0  0  0  0  0  0  0  0  0  0  0  0
    4.8530    1.3707   -3.2366 H   0  0  0  0  0  0  0  0  0  0  0  0
    5.8947    0.1148   -0.6471 H   0  0  0  0  0  0  0  0  0  0  0  0
    4.5441   -0.5139   -1.6042 H   0  0  0  0  0  0  0  0  0  0  0  0
    3.9875   -0.4557    0.8244 H   0  0  0  0  0  0  0  0  0  0  0  0
    4.8021    0.9450    1.5199 H   0  0  0  0  0  0  0  0  0  0  0  0
    2.6110    2.1419    1.6584 H   0  0  0  0  0  0  0  0  0  0  0  0
    2.6279    0.6749    2.6038 H   0  0  0  0  0  0  0  0  0  0  0  0
    0.8286   -0.6278    2.4143 H   0  0  0  0  0  0  0  0  0  0  0  0
    1.5933   -1.4679    1.0789 H   0  0  0  0  0  0  0  0  0  0  0  0
   -0.4886   -0.9752   -0.3171 H   0  0  0  0  0  0  0  0  0  0  0  0
   -0.7401   -2.0110    1.0688 H   0  0  0  0  0  0  0  0  0  0  0  0
   -1.6578   -0.1351    2.4012 H   0  0  0  0  0  0  0  0  0  0  0  0
   -1.2110    1.0154    1.1939 H   0  0  0  0  0  0  0  0  0  0  0  0
   -3.3207   -1.3366    3.0572 H   0  0  0  0  0  0  0  0  0  0  0  0
   -4.2875   -3.5392    3.5255 H   0  0  0  0  0  0  0  0  0  0  0  0
   -5.0420   -4.9964    1.6581 H   0  0  0  0  0  0  0  0  0  0  0  0
   -4.8076   -4.2313   -0.6737 H   0  0  0  0  0  0  0  0  0  0  0  0
   -3.9121    0.1406   -3.8745 H   0  0  0  0  0  0  0  0  0  0  0  0
   -3.4541    2.5617   -3.8847 H   0  0  0  0  0  0  0  0  0  0  0  0
   -2.5422    2.4189    0.3123 H   0  0  0  0  0  0  0  0  0  0  0  0
    1.9521   -0.4415   -0.9399 H   0  0  0  0  0  0  0  0  0  0  0  0
    0.7726    0.8560   -1.1564 H   0  0  0  0  0  0  0  0  0  0  0  0
    2.9000    1.4663   -2.1814 H   0  0  0  0  0  0  0  0  0  0  0  0
    2.5519    2.5425   -0.8577 H   0  0  0  0  0  0  0  0  0  0  0  0
  1  2  1  0
  2  3  1  0
  3  4  1  0
  4  5  1  0
  5  6  1  0
  6  7  1  0
  7  8  1  0
  8  9  1  0
  9 10  1  0
 10 11  1  0
 11 12  1  0
 12 13  2  0
 13 14  1  0
 14 15  2  0
 15 16  1  0
 16 17  2  0
 17 18  1  0
 18 19  1  0
 19 20  1  0
 20 21  2  0
 21 22  1  0
 22 23  1  0
 22 24  2  0
 24 25  1  0
  7 26  1  0
 26 27  1  0
 27  4  1  0
 25 11  1  0
 17 12  1  0
 25 19  2  0
  1 28  1  0
  2 29  1  0
  2 30  1  0
  3 31  1  0
  3 32  1  0
  5 33  1  0
  5 34  1  0
  6 35  1  0
  6 36  1  0
  8 37  1  0
  8 38  1  0
  9 39  1  0
  9 40  1  0
 10 41  1  0
 10 42  1  0
 13 43  1  0
 14 44  1  0
 15 45  1  0
 16 46  1  0
 20 47  1  0
 21 48  1  0
 24 49  1  0
 26 50  1  0
 26 51  1  0
 27 52  1  0
 27 53  1  0
M  END
$$$$
