
     RDKit          3D

 34 35  0  0  0  0  0  0  0  0999 V2000
   -0.0340   -2.0728   -1.3072 O   0  0  0  0  0  0  0  0  0  0  0  0
   -0.3522   -1.6112   -0.2077 C   0  0  0  0  0  0  0  0  0  0  0  0
    0.5734   -1.6687    0.9941 C   0  0  0  0  0  0  0  0  0  0  0  0
    2.0490   -1.6117    0.5940 C   0  0  0  0  0  0  0  0  0  0  0  0
    2.4805   -0.2244    0.1776 C   0  0  0  0  0  0  0  0  0  0  0  0
    2.8469    0.7259    1.1424 C   0  0  0  0  0  0  0  0  0  0  0  0
    3.2270    2.0149    0.7612 C   0  0  0  0  0  0  0  0  0  0  0  0
    3.2362    2.3545   -0.5876 C   0  0  0  0  0  0  0  0  0  0  0  0
    3.6000    3.6010   -1.0037 O   0  0  0  0  0  0  0  0  0  0  0  0
    2.8724    1.4282   -1.5566 C   0  0  0  0  0  0  0  0  0  0  0  0
    2.4951    0.1400   -1.1756 C   0  0  0  0  0  0  0  0  0  0  0  0
   -1.6863   -0.9576   -0.0909 C   0  0  0  0  0  0  0  0  0  0  0  0
   -2.2418   -0.3614   -1.2368 C   0  0  0  0  0  0  0  0  0  0  0  0
   -1.6318   -0.3899   -2.4651 O   0  0  0  0  0  0  0  0  0  0  0  0
   -3.4669    0.2993   -1.1795 C   0  0  0  0  0  0  0  0  0  0  0  0
   -4.1616    0.3481    0.0216 C   0  0  0  0  0  0  0  0  0  0  0  0
   -5.3580    1.0023    0.0345 O   0  0  0  0  0  0  0  0  0  0  0  0
   -3.6550   -0.2625    1.1656 C   0  0  0  0  0  0  0  0  0  0  0  0
   -2.4207   -0.9206    1.1040 C   0  0  0  0  0  0  0  0  0  0  0  0
   -1.9615   -1.5588    2.2244 O   0  0  0  0  0  0  0  0  0  0  0  0
    0.3544   -0.8460    1.6825 H   0  0  0  0  0  0  0  0  0  0  0  0
    0.3790   -2.6185    1.5051 H   0  0  0  0  0  0  0  0  0  0  0  0
    2.2727   -2.3278   -0.2064 H   0  0  0  0  0  0  0  0  0  0  0  0
    2.6636   -1.9221    1.4489 H   0  0  0  0  0  0  0  0  0  0  0  0
    2.8395    0.4649    2.1983 H   0  0  0  0  0  0  0  0  0  0  0  0
    3.5093    2.7328    1.5241 H   0  0  0  0  0  0  0  0  0  0  0  0
    3.8268    4.1326   -0.2239 H   0  0  0  0  0  0  0  0  0  0  0  0
    2.8804    1.7066   -2.6065 H   0  0  0  0  0  0  0  0  0  0  0  0
    2.2092   -0.5773   -1.9426 H   0  0  0  0  0  0  0  0  0  0  0  0
   -0.8921   -1.0367   -2.4174 H   0  0  0  0  0  0  0  0  0  0  0  0
   -3.8770    0.7658   -2.0709 H   0  0  0  0  0  0  0  0  0  0  0  0
   -5.7381    0.9711    0.9270 H   0  0  0  0  0  0  0  0  0  0  0  0
   -4.2185   -0.2308    2.0919 H   0  0  0  0  0  0  0  0  0  0  0  0
   -2.6200   -1.4890    2.9365 H   0  0  0  0  0  0  0  0  0  0  0  0
  1  2  2  0
  2  3  1  0
  3  4  1  0
  4  5  1  0
  5  6  1  0
  6  7  2  0
  7  8  1  0
  8  9  1  0
  8 10  2  0
 10 11  1  0
  2 12  1  0
 12 13  2  0
 13 14  1  0
 13 15  1  0
 15 16  2  0
 16 17  1  0
 16 18  1  0
 18 19  2  0
 19 20  1  0
 11  5  2  0
 19 12  1  0
  3 21  1  0
  3 22  1  0
  4 23  1  0
  4 24  1  0
  6 25  1  0
  7 26  1  0
  9 27  1  0
 10 28  1  0
 11 29  1  0
 14 30  1  0
 15 31  1  0
 17 32  1  0
 18 33  1  0
 20 34  1  0
M  END
$$$$
