
     RDKit          3D

 34 37  0  0  0  0  0  0  0  0999 V2000
   -6.0391    1.8647    1.4682 Br  0  0  0  0  0  0  0  0  0  0  0  0
   -5.0543    0.4242    0.7377 C   0  0  0  0  0  0  0  0  0  0  0  0
   -5.7101   -0.7581    0.4058 C   0  0  0  0  0  0  0  0  0  0  0  0
   -4.9780   -1.8238   -0.1102 C   0  0  0  0  0  0  0  0  0  0  0  0
   -3.5991   -1.6953   -0.3022 C   0  0  0  0  0  0  0  0  0  0  0  0
   -2.9320   -0.4946   -0.0071 C   0  0  0  0  0  0  0  0  0  0  0  0
   -1.5274   -0.4376   -0.1575 N   0  0  0  0  0  0  0  0  0  0  0  0
   -0.7105    0.7059   -0.3796 C   0  0  0  0  0  0  0  0  0  0  0  0
   -1.2858    1.8628   -0.7536 N   0  0  0  0  0  0  0  0  0  0  0  0
   -0.4704    2.8931   -0.9891 C   0  0  0  0  0  0  0  0  0  0  0  0
    0.8625    2.8836   -0.8909 N   0  0  0  0  0  0  0  0  0  0  0  0
    1.4280    1.7367   -0.5050 C   0  0  0  0  0  0  0  0  0  0  0  0
    2.8110    1.6909   -0.3819 C   0  0  0  0  0  0  0  0  0  0  0  0
    3.4947    0.5335    0.0272 C   0  0  0  0  0  0  0  0  0  0  0  0
    4.8941    0.5081    0.1461 C   0  0  0  0  0  0  0  0  0  0  0  0
    5.5535   -0.6498    0.5612 C   0  0  0  0  0  0  0  0  0  0  0  0
    4.8231   -1.7949    0.8635 C   0  0  0  0  0  0  0  0  0  0  0  0
    3.4323   -1.7843    0.7497 C   0  0  0  0  0  0  0  0  0  0  0  0
    2.7567   -0.6262    0.3302 C   0  0  0  0  0  0  0  0  0  0  0  0
    1.3608   -0.5893    0.2061 C   0  0  0  0  0  0  0  0  0  0  0  0
    0.6856    0.5841   -0.2203 C   0  0  0  0  0  0  0  0  0  0  0  0
   -3.6769    0.5534    0.5470 C   0  0  0  0  0  0  0  0  0  0  0  0
   -6.7813   -0.8608    0.5552 H   0  0  0  0  0  0  0  0  0  0  0  0
   -5.4771   -2.7569   -0.3584 H   0  0  0  0  0  0  0  0  0  0  0  0
   -3.0491   -2.5479   -0.6927 H   0  0  0  0  0  0  0  0  0  0  0  0
   -1.1854   -1.1946   -0.7404 H   0  0  0  0  0  0  0  0  0  0  0  0
   -0.9339    3.8256   -1.2923 H   0  0  0  0  0  0  0  0  0  0  0  0
    3.3728    2.5951   -0.6111 H   0  0  0  0  0  0  0  0  0  0  0  0
    5.4822    1.3945   -0.0828 H   0  0  0  0  0  0  0  0  0  0  0  0
    6.6369   -0.6553    0.6501 H   0  0  0  0  0  0  0  0  0  0  0  0
    5.3352   -2.6966    1.1895 H   0  0  0  0  0  0  0  0  0  0  0  0
    2.8792   -2.6889    0.9928 H   0  0  0  0  0  0  0  0  0  0  0  0
    0.7863   -1.4777    0.4605 H   0  0  0  0  0  0  0  0  0  0  0  0
   -3.1844    1.4763    0.8393 H   0  0  0  0  0  0  0  0  0  0  0  0
  1  2  1  0
  2  3  1  0
  3  4  2  0
  4  5  1  0
  5  6  2  0
  6  7  1  0
  7  8  1  0
  8  9  1  0
  9 10  2  0
 10 11  1  0
 11 12  2  0
 12 13  1  0
 13 14  2  0
 14 15  1  0
 15 16  2  0
 16 17  1  0
 17 18  2  0
 18 19  1  0
 19 20  2  0
 20 21  1  0
  6 22  1  0
 22  2  2  0
 21  8  2  0
 21 12  1  0
 19 14  1  0
  3 23  1  0
  4 24  1  0
  5 25  1  0
  7 26  1  0
 10 27  1  0
 13 28  1  0
 15 29  1  0
 16 30  1  0
 17 31  1  0
 18 32  1  0
 20 33  1  0
 22 34  1  0
M  END
$$$$
