
     RDKit          3D

 22 22  0  0  0  0  0  0  0  0999 V2000
   -3.6363    0.9590    0.5983 N   0  0  0  0  0  0  0  0  0  0  0  0
   -2.3933    0.4884   -0.0104 C   0  0  0  0  0  0  0  0  0  0  0  0
   -1.3009    0.2890    1.0456 C   0  0  0  0  0  0  0  0  0  0  0  0
   -0.0048   -0.1796    0.4268 C   0  0  0  0  0  0  0  0  0  0  0  0
    0.2031   -1.5475    0.1773 C   0  0  0  0  0  0  0  0  0  0  0  0
    1.3886   -1.9909   -0.4122 C   0  0  0  0  0  0  0  0  0  0  0  0
    2.3621   -1.0651   -0.7529 C   0  0  0  0  0  0  0  0  0  0  0  0
    3.5216   -1.4976   -1.3301 O   0  0  0  0  0  0  0  0  0  0  0  0
    2.1688    0.2927   -0.5141 C   0  0  0  0  0  0  0  0  0  0  0  0
    3.1716    1.1501   -0.8758 O   0  0  0  0  0  0  0  0  0  0  0  0
    0.9906    0.7451    0.0715 C   0  0  0  0  0  0  0  0  0  0  0  0
   -3.4890    1.8757    1.0187 H   0  0  0  0  0  0  0  0  0  0  0  0
   -4.3373    1.0903   -0.1306 H   0  0  0  0  0  0  0  0  0  0  0  0
   -2.0667    1.2128   -0.7657 H   0  0  0  0  0  0  0  0  0  0  0  0
   -2.5916   -0.4552   -0.5314 H   0  0  0  0  0  0  0  0  0  0  0  0
   -1.6264   -0.4417    1.7976 H   0  0  0  0  0  0  0  0  0  0  0  0
   -1.1254    1.2251    1.5918 H   0  0  0  0  0  0  0  0  0  0  0  0
   -0.5605   -2.2762    0.4426 H   0  0  0  0  0  0  0  0  0  0  0  0
    1.5499   -3.0473   -0.6033 H   0  0  0  0  0  0  0  0  0  0  0  0
    4.0405   -0.6814   -1.4733 H   0  0  0  0  0  0  0  0  0  0  0  0
    2.9013    2.0510   -0.6289 H   0  0  0  0  0  0  0  0  0  0  0  0
    0.8343    1.8034    0.2562 H   0  0  0  0  0  0  0  0  0  0  0  0
  1  2  1  0
  2  3  1  0
  3  4  1  0
  4  5  1  0
  5  6  2  0
  6  7  1  0
  7  8  1  0
  7  9  2  0
  9 10  1  0
  9 11  1  0
 11  4  2  0
  1 12  1  0
  1 13  1  0
  2 14  1  0
  2 15  1  0
  3 16  1  0
  3 17  1  0
  5 18  1  0
  6 19  1  0
  8 20  1  0
 10 21  1  0
 11 22  1  0
M  END
$$$$
